BEGIN OPTIONS
END OPTIONS

BEGIN TIMING
  TDIS6 test.tdis
END TIMING

BEGIN MODELS
  GWF6 test.nam test
END MODELS

BEGIN EXCHANGES
END EXCHANGES

BEGIN SOLUTIONGROUP 1
  IMS6 test.ims test
END SOLUTIONGROUP
