BEGIN OPTIONS
  HEAD FILEOUT test.hds
END OPTIONS

BEGIN PERIOD 1
  SAVE HEAD LAST
END PERIOD
