BEGIN OPTIONS
END OPTIONS

BEGIN GRIDDATA
  STRT CONSTANT 95.0
END GRIDDATA
