BEGIN OPTIONS
END OPTIONS

BEGIN NONLINEAR
  OUTER_DVCLOSE 1.0e-6
  OUTER_MAXIMUM 25
END NONLINEAR

BEGIN LINEAR
  INNER_MAXIMUM 50
  INNER_DVCLOSE 1.0e-9
END LINEAR
