BEGIN OPTIONS
  LENGTH_UNITS METERS
END OPTIONS

BEGIN DIMENSIONS
  NLAY 3
  NROW 10
  NCOL 10
END DIMENSIONS

BEGIN GRIDDATA
  DELR CONSTANT 100.0
  DELC CONSTANT 100.0
  TOP CONSTANT 100.0
  BOTM LAYERED
    CONSTANT 90.0
    CONSTANT 80.0
    CONSTANT 70.0
END GRIDDATA
