BEGIN OPTIONS
END OPTIONS

BEGIN DIMENSIONS
  MAXBOUND 10
END DIMENSIONS

BEGIN PERIOD 1
  1 1 1 100.0
  1 1 2 100.0
  1 1 3 100.0
  1 1 4 100.0
  1 1 5 100.0
  1 1 6 100.0
  1 1 7 100.0
  1 1 8 100.0
  1 1 9 100.0
  1 1 10 100.0
END PERIOD
