Simple MODFLOW-2005 Test Model
         0         0
CONSTANT         1
CONSTANT      45.00000
