BEGIN OPTIONS
END OPTIONS

BEGIN TIMING
  TDIS6  model.tdis
END TIMING

BEGIN MODELS
  GWF6  model.nam  model
END MODELS
