BEGIN OPTIONS
  LENGTH_UNITS meters
END OPTIONS

BEGIN DIMENSIONS
  NLAY 1
  NROW 10
  NCOL 10
END DIMENSIONS

BEGIN GRIDDATA
  DELR CONSTANT 100.0
  DELC CONSTANT 100.0
  TOP CONSTANT 100.0
  BOTM CONSTANT 0.0
END GRIDDATA
